<?xml version="1.0" encoding="UTF-8"?>

<!-- generated on 2026-03-05 19:13:38 by Eclipse SUMO netedit Version 1.24.0
-->

<routes xmlns:xsi="http://www.w3.org/2001/XMLSchema-instance" xsi:noNamespaceSchemaLocation="http://sumo.dlr.de/xsd/routes_file.xsd">
    <!-- Vehicles, persons and containers (sorted by depart) -->
    <flow id="f_spt" begin="0.00" from="675098743#0" to="585303113#2" end="3600.00" vehsPerHour="1800"/>
    <flow id="f_sl" begin="0.00" from="675098743#0" to="675098743#2" end="3600.00" vehsPerHour="1800"/>
    <flow id="f_upt" begin="0.00" color="255,53,0" from="585303113#0" to="675098743#2" end="3600.00" vehsPerHour="1800"/>
    <flow id="f_ul" begin="0.00" color="50,255,0" from="585303113#0" to="585303113#2" end="3600.00" vehsPerHour="1800"/>
</routes>
