<?xml version="1.0" encoding="UTF-8"?>

<!-- generated on 2026-02-19 19:47:34 by Eclipse SUMO netconvert Version 1.24.0
<netconvertConfiguration xmlns:xsi="http://www.w3.org/2001/XMLSchema-instance" xsi:noNamespaceSchemaLocation="http://sumo.dlr.de/xsd/netconvertConfiguration.xsd">

    <input>
        <osm-files value="map_suhat_edit.osm"/>
    </input>

    <output>
        <output-file value="map_suhat_edit.net.xml"/>
    </output>

    <projection>
        <proj.utm value="true"/>
    </projection>

</netconvertConfiguration>
-->

<net version="1.20" junctionCornerDetail="5" limitTurnSpeed="5.50" xmlns:xsi="http://www.w3.org/2001/XMLSchema-instance" xsi:noNamespaceSchemaLocation="http://sumo.dlr.de/xsd/net_file.xsd">

    <location netOffset="-678503.25,878518.69" convBoundary="0.00,0.00,592.54,536.44" origBoundary="112.619397,-7.944569,112.624752,-7.939699" projParameter="+proj=utm +zone=49 +ellps=WGS84 +datum=WGS84 +units=m +no_defs"/>

    <type id="highway.primary" priority="12" numLanes="2" speed="27.78" disallow="tram rail_urban rail rail_electric rail_fast ship container cable_car subway aircraft wheelchair scooter drone" oneway="0"/>
    <type id="highway.primary_link" priority="7" numLanes="1" speed="22.22" disallow="tram rail_urban rail rail_electric rail_fast ship container cable_car subway aircraft wheelchair scooter drone" oneway="0"/>

    <edge id=":2515155500_0" function="internal">
        <lane id=":2515155500_0_0" index="0" disallow="tram rail_urban rail rail_electric rail_fast ship container cable_car subway aircraft wheelchair scooter drone" speed="6.30" length="8.38" shape="314.49,300.77 313.43,302.61 313.29,304.44 314.06,306.24 315.75,308.03"/>
    </edge>
    <edge id=":2515155500_1" function="internal">
        <lane id=":2515155500_1_0" index="0" disallow="tram rail_urban rail rail_electric rail_fast ship container cable_car subway aircraft wheelchair scooter drone" speed="13.89" length="11.13" shape="307.13,300.96 315.75,308.03"/>
        <lane id=":2515155500_1_1" index="1" disallow="tram rail_urban rail rail_electric rail_fast ship container cable_car subway aircraft wheelchair scooter drone" speed="13.89" length="11.13" shape="305.11,303.44 313.71,310.49"/>
    </edge>
    <edge id=":2515155501_0" function="internal">
        <lane id=":2515155501_0_0" index="0" disallow="tram rail_urban rail rail_electric rail_fast ship container cable_car subway aircraft wheelchair scooter drone" speed="6.30" length="8.37" shape="321.97,300.41 319.89,299.11 317.97,298.71 316.21,299.21 314.62,300.61"/>
    </edge>
    <edge id=":2515155501_1" function="internal">
        <lane id=":2515155501_1_0" index="0" disallow="tram rail_urban rail rail_electric rail_fast ship container cable_car subway aircraft wheelchair scooter drone" speed="13.89" length="11.12" shape="321.97,300.41 313.35,293.37"/>
        <lane id=":2515155501_1_1" index="1" disallow="tram rail_urban rail rail_electric rail_fast ship container cable_car subway aircraft wheelchair scooter drone" speed="13.89" length="11.12" shape="323.98,297.92 315.38,290.90"/>
    </edge>
    <edge id=":2515155503_0" function="internal">
        <lane id=":2515155503_0_0" index="0" disallow="tram rail_urban rail rail_electric rail_fast ship container cable_car subway aircraft wheelchair scooter drone" speed="13.89" length="11.21" shape="267.92,254.76 259.37,247.53"/>
        <lane id=":2515155503_0_1" index="1" disallow="tram rail_urban rail rail_electric rail_fast ship container cable_car subway aircraft wheelchair scooter drone" speed="13.89" length="11.21" shape="269.99,252.32 261.43,245.08"/>
    </edge>
    <edge id=":2515155503_2" function="internal">
        <lane id=":2515155503_2_0" index="0" disallow="tram rail_urban rail rail_electric rail_fast ship container cable_car subway aircraft wheelchair scooter drone" speed="6.34" length="8.67" shape="260.24,255.05 261.47,253.12 261.74,251.23 261.03,249.36 259.37,247.53"/>
    </edge>
    <edge id=":5593501075_0" function="internal">
        <lane id=":5593501075_0_0" index="0" disallow="tram rail_urban rail rail_electric rail_fast ship container cable_car subway aircraft wheelchair scooter drone" speed="6.38" length="8.60" shape="252.56,255.51 254.57,256.83 256.50,257.22 258.34,256.68 260.11,255.20"/>
    </edge>
    <edge id=":5593501075_1" function="internal">
        <lane id=":5593501075_1_0" index="0" disallow="tram rail_urban rail rail_electric rail_fast ship container cable_car subway aircraft wheelchair scooter drone" speed="13.89" length="11.30" shape="252.56,255.51 261.16,262.76"/>
        <lane id=":5593501075_1_1" index="1" disallow="tram rail_urban rail rail_electric rail_fast ship container cable_car subway aircraft wheelchair scooter drone" speed="13.89" length="11.30" shape="250.45,257.92 259.13,265.24"/>
    </edge>

    <edge id="585303113#0" from="5593695139" to="2515155501" priority="12" type="highway.primary" spreadType="center" shape="592.54,529.26 568.21,506.60 551.59,491.82 512.72,460.83 503.23,452.35 459.75,414.48 421.63,382.15 375.85,343.48 372.44,340.48 368.53,337.10 364.95,334.27 336.31,309.93 318.66,295.67">
        <lane id="585303113#0_0" index="0" disallow="tram rail_urban rail rail_electric rail_fast ship container cable_car subway aircraft wheelchair scooter drone" speed="13.89" length="354.50" shape="591.45,530.43 567.13,507.78 550.56,493.05 511.69,462.05 502.17,453.55 458.71,415.69 420.59,383.38 374.82,344.70 371.39,341.68 367.51,338.33 363.94,335.50 335.29,311.16 321.97,300.41"/>
        <lane id="585303113#0_1" index="1" disallow="tram rail_urban rail rail_electric rail_fast ship container cable_car subway aircraft wheelchair scooter drone" speed="13.89" length="354.50" shape="593.63,528.09 569.29,505.41 552.62,490.60 513.76,459.61 504.29,451.15 460.79,413.26 422.66,380.93 376.89,342.26 373.49,339.27 369.55,335.86 365.97,333.03 337.33,308.69 323.98,297.92"/>
        <param key="ref" value="35-128-13K"/>
    </edge>
    <edge id="585303113#1" from="2515155501" to="2515155503" priority="12" type="highway.primary" spreadType="center" shape="318.66,295.67 297.78,278.48 279.39,262.39 264.73,249.96">
        <lane id="585303113#1_0" index="0" disallow="tram rail_urban rail rail_electric rail_fast ship container cable_car subway aircraft wheelchair scooter drone" speed="13.89" length="59.60" shape="313.35,293.37 296.74,279.70 278.34,263.61 267.92,254.76"/>
        <lane id="585303113#1_1" index="1" disallow="tram rail_urban rail rail_electric rail_fast ship container cable_car subway aircraft wheelchair scooter drone" speed="13.89" length="59.60" shape="315.38,290.90 298.81,277.26 280.43,261.18 269.99,252.32"/>
        <param key="ref" value="35-128-13K"/>
    </edge>
    <edge id="585303113#2" from="2515155503" to="597687685" priority="12" type="highway.primary" spreadType="center" shape="264.73,249.96 243.08,231.67 209.73,203.19 189.99,186.06 156.87,157.96 132.56,133.48 93.63,94.33 17.33,6.16 12.03,0.00">
        <lane id="585303113#2_0" index="0" disallow="tram rail_urban rail rail_electric rail_fast ship container cable_car subway aircraft wheelchair scooter drone" speed="13.89" length="350.54" shape="259.37,247.53 242.04,232.89 208.68,204.40 188.95,187.27 155.78,159.14 131.42,134.61 92.45,95.42 16.12,7.21 10.82,1.04"/>
        <lane id="585303113#2_1" index="1" disallow="tram rail_urban rail rail_electric rail_fast ship container cable_car subway aircraft wheelchair scooter drone" speed="13.89" length="350.54" shape="261.43,245.08 244.12,230.45 210.77,201.98 191.03,184.84 157.95,156.79 133.69,132.35 94.80,93.24 18.54,5.11 13.25,-1.04"/>
        <param key="ref" value="35-128-13K"/>
    </edge>
    <edge id="675098743#0" from="2057425121" to="5593501075" priority="12" type="highway.primary" spreadType="center" shape="0.00,7.82 6.25,14.16 119.87,138.04 136.44,155.58 143.17,162.25 149.30,167.72 168.46,184.40 255.81,260.46">
        <lane id="675098743#0_0" index="0" disallow="tram rail_urban rail rail_electric rail_fast ship container cable_car subway aircraft wheelchair scooter drone" speed="13.89" length="354.34" shape="1.14,6.70 7.41,13.05 121.05,136.95 137.58,154.46 144.26,161.09 150.36,166.52 169.51,183.20 252.56,255.51"/>
        <lane id="675098743#0_1" index="1" disallow="tram rail_urban rail rail_electric rail_fast ship container cable_car subway aircraft wheelchair scooter drone" speed="13.89" length="354.34" shape="-1.14,8.95 5.10,15.26 118.70,139.13 135.29,156.69 142.07,163.42 148.24,168.92 167.41,185.61 250.45,257.92"/>
        <param key="ref" value="35-128-13K"/>
    </edge>
    <edge id="675098743#1" from="5593501075" to="2515155500" priority="12" type="highway.primary" spreadType="center" shape="255.81,260.46 270.21,272.22 289.29,288.51 310.44,305.71">
        <lane id="675098743#1_0" index="0" disallow="tram rail_urban rail rail_electric rail_fast ship container cable_car subway aircraft wheelchair scooter drone" speed="13.89" length="59.78" shape="261.16,262.76 271.23,270.99 290.32,287.28 307.13,300.96"/>
        <lane id="675098743#1_1" index="1" disallow="tram rail_urban rail rail_electric rail_fast ship container cable_car subway aircraft wheelchair scooter drone" speed="13.89" length="59.78" shape="259.13,265.24 269.18,273.45 288.27,289.74 305.11,303.44"/>
        <param key="ref" value="35-128-13K"/>
    </edge>
    <edge id="675098743#2" from="2515155500" to="2423853875" priority="12" type="highway.primary" spreadType="center" shape="310.44,305.71 349.73,338.22 357.77,346.00 368.29,355.55 450.87,429.66 501.78,472.33 551.23,513.57 575.55,536.44">
        <lane id="675098743#2_0" index="0" disallow="tram rail_urban rail rail_electric rail_fast ship container cable_car subway aircraft wheelchair scooter drone" speed="13.89" length="345.99" shape="315.75,308.03 350.80,337.03 358.86,344.83 369.36,354.37 451.92,428.45 502.80,471.10 552.30,512.37 576.64,535.28"/>
        <lane id="675098743#2_1" index="1" disallow="tram rail_urban rail rail_electric rail_fast ship container cable_car subway aircraft wheelchair scooter drone" speed="13.89" length="345.99" shape="313.71,310.49 348.66,339.41 356.67,347.16 367.22,356.74 449.82,430.87 500.75,473.56 550.17,514.76 574.45,537.61"/>
        <param key="ref" value="35-128-13K"/>
    </edge>
    <edge id="949617034" from="2515155501" to="2515155500" priority="7" type="highway.primary_link" spreadType="center">
        <lane id="949617034_0" index="0" disallow="tram rail_urban rail rail_electric rail_fast ship container cable_car subway aircraft wheelchair scooter drone" speed="22.22" length="0.20" shape="314.62,300.61 314.49,300.77"/>
    </edge>
    <edge id="949617035" from="5593501075" to="2515155503" priority="7" type="highway.primary_link" spreadType="center" shape="255.81,260.46 260.03,255.28 264.73,249.96">
        <lane id="949617035_0" index="0" disallow="tram rail_urban rail rail_electric rail_fast ship container cable_car subway aircraft wheelchair scooter drone" speed="22.22" length="0.20" shape="260.11,255.20 260.24,255.05"/>
    </edge>

    <junction id="2057425121" type="dead_end" x="0.00" y="7.82" incLanes="" intLanes="" shape="-2.28,10.07 2.28,5.57"/>
    <junction id="2423853875" type="dead_end" x="575.55" y="536.44" incLanes="675098743#2_0 675098743#2_1" intLanes="" shape="577.74,534.11 573.36,538.77"/>
    <junction id="2515155500" type="priority" x="310.44" y="305.71" incLanes="949617034_0 675098743#1_0 675098743#1_1" intLanes=":2515155500_0_0 :2515155500_1_0 :2515155500_1_1" shape="312.69,311.73 316.77,306.79 315.34,305.04 315.10,304.12 315.16,303.17 315.54,302.19 316.22,301.18 313.75,299.15 312.00,300.58 311.08,300.83 310.13,300.77 309.15,300.40 308.14,299.72 304.10,304.68">
        <request index="0" response="110" foes="110" cont="0"/>
        <request index="1" response="000" foes="001" cont="0"/>
        <request index="2" response="000" foes="001" cont="0"/>
    </junction>
    <junction id="2515155501" type="priority" x="318.66" y="295.67" incLanes="585303113#0_0 585303113#0_1" intLanes=":2515155501_0_0 :2515155501_1_0 :2515155501_1_1" shape="320.97,301.65 324.99,296.67 316.40,289.67 312.33,294.61 313.75,296.35 314.00,297.27 313.94,298.22 313.56,299.20 312.88,300.21 315.36,302.23 317.10,300.80 318.02,300.55 318.97,300.61 319.95,300.97">
        <request index="0" response="000" foes="000" cont="0"/>
        <request index="1" response="000" foes="000" cont="0"/>
        <request index="2" response="000" foes="000" cont="0"/>
    </junction>
    <junction id="2515155503" type="priority" x="264.73" y="249.96" incLanes="585303113#1_0 585303113#1_1 949617035_0" intLanes=":2515155503_0_0 :2515155503_0_1 :2515155503_2_0" shape="266.88,255.98 271.02,251.10 262.46,243.86 258.33,248.75 259.68,250.47 259.90,251.38 259.82,252.33 259.43,253.31 258.74,254.33 261.14,256.45 262.92,255.00 263.86,254.76 264.84,254.84 265.84,255.25">
        <request index="0" response="000" foes="100" cont="0"/>
        <request index="1" response="000" foes="100" cont="0"/>
        <request index="2" response="011" foes="011" cont="0"/>
    </junction>
    <junction id="5593501075" type="priority" x="255.81" y="260.46" incLanes="675098743#0_0 675098743#0_1" intLanes=":5593501075_0_0 :5593501075_1_0 :5593501075_1_1" shape="258.12,266.48 262.17,261.52 260.69,259.73 260.43,258.80 260.51,257.85 260.92,256.87 261.65,255.87 259.17,253.84 257.37,255.23 256.45,255.46 255.52,255.38 254.57,254.99 253.61,254.30 249.40,259.13">
        <request index="0" response="000" foes="000" cont="0"/>
        <request index="1" response="000" foes="000" cont="0"/>
        <request index="2" response="000" foes="000" cont="0"/>
    </junction>
    <junction id="5593695139" type="dead_end" x="592.54" y="529.26" incLanes="" intLanes="" shape="594.73,526.92 590.36,531.60"/>
    <junction id="597687685" type="dead_end" x="12.03" y="0.00" incLanes="585303113#2_0 585303113#2_1" intLanes="" shape="9.60,2.09 14.46,-2.09"/>

    <connection from="585303113#0" to="949617034" fromLane="0" toLane="0" via=":2515155501_0_0" dir="r" state="M"/>
    <connection from="585303113#0" to="585303113#1" fromLane="0" toLane="0" via=":2515155501_1_0" dir="s" state="M"/>
    <connection from="585303113#0" to="585303113#1" fromLane="1" toLane="1" via=":2515155501_1_1" dir="s" state="M"/>
    <connection from="585303113#1" to="585303113#2" fromLane="0" toLane="0" via=":2515155503_0_0" dir="s" state="M"/>
    <connection from="585303113#1" to="585303113#2" fromLane="1" toLane="1" via=":2515155503_0_1" dir="s" state="M"/>
    <connection from="675098743#0" to="949617035" fromLane="0" toLane="0" via=":5593501075_0_0" dir="r" state="M"/>
    <connection from="675098743#0" to="675098743#1" fromLane="0" toLane="0" via=":5593501075_1_0" dir="s" state="M"/>
    <connection from="675098743#0" to="675098743#1" fromLane="1" toLane="1" via=":5593501075_1_1" dir="s" state="M"/>
    <connection from="675098743#1" to="675098743#2" fromLane="0" toLane="0" via=":2515155500_1_0" dir="s" state="M"/>
    <connection from="675098743#1" to="675098743#2" fromLane="1" toLane="1" via=":2515155500_1_1" dir="s" state="M"/>
    <connection from="949617034" to="675098743#2" fromLane="0" toLane="0" via=":2515155500_0_0" dir="r" state="m"/>
    <connection from="949617035" to="585303113#2" fromLane="0" toLane="0" via=":2515155503_2_0" dir="r" state="m"/>

    <connection from=":2515155500_0" to="675098743#2" fromLane="0" toLane="0" dir="r" state="M"/>
    <connection from=":2515155500_1" to="675098743#2" fromLane="0" toLane="0" dir="s" state="M"/>
    <connection from=":2515155500_1" to="675098743#2" fromLane="1" toLane="1" dir="s" state="M"/>
    <connection from=":2515155501_0" to="949617034" fromLane="0" toLane="0" dir="r" state="M"/>
    <connection from=":2515155501_1" to="585303113#1" fromLane="0" toLane="0" dir="s" state="M"/>
    <connection from=":2515155501_1" to="585303113#1" fromLane="1" toLane="1" dir="s" state="M"/>
    <connection from=":2515155503_0" to="585303113#2" fromLane="0" toLane="0" dir="s" state="M"/>
    <connection from=":2515155503_0" to="585303113#2" fromLane="1" toLane="1" dir="s" state="M"/>
    <connection from=":2515155503_2" to="585303113#2" fromLane="0" toLane="0" dir="r" state="M"/>
    <connection from=":5593501075_0" to="949617035" fromLane="0" toLane="0" dir="r" state="M"/>
    <connection from=":5593501075_1" to="675098743#1" fromLane="0" toLane="0" dir="s" state="M"/>
    <connection from=":5593501075_1" to="675098743#1" fromLane="1" toLane="1" dir="s" state="M"/>

</net>
